Results/PF_SnapMode/Switch_Open/CURRENTS_REPORT.Txt

SYMMETRICAL COMPONENT CURRENTS BY CIRCUIT ELEMENT (first 3 phases)

Element                      Term      I1         I2         %I2/I1    I0         %I0/I1   %Normal %Emergency

"VSOURCE.SOURCE" ...........   1  1.8103E-011   1.2997E-012     7.18  9.7013E-012    53.59      0.00     0.00
   -                           2  1.8103E-011   1.2997E-012     7.18  9.7013E-012    53.59      0.00     0.00
"VSOURCE.HV_SOURCE1" .......   1       7.694   3.7599E-009     0.00  3.5869E-010     0.00      0.00     0.00
   -                           2       7.694   3.7599E-009     0.00  3.5869E-010     0.00      0.00     0.00
"VSOURCE.HV_SOURCE2" .......   1      5.5731   2.7198E-009     0.00  2.8665E-010     0.00      0.00     0.00
   -                           2      5.5731   2.7198E-009     0.00  2.8665E-010     0.00      0.00     0.00
"TRANSFORMER.TRANSFORMER1" .   1       2.169   1.0642E-009     0.00  9.1045E-015     0.00      7.51     5.51
   -                           2      59.647   3.1094E-008     0.00  1.9602E-010     0.00      0.00     0.00
"TRANSFORMER.TRANSFORMER2" .   1      1.1531   5.6583E-010     0.00  9.6591E-015     0.00      3.99     2.93
   -                           2      31.711   1.6532E-008     0.00  1.0444E-010     0.00      0.00     0.00
"LINE.LV_LINE1" ............   1      59.647   3.1093E-008     0.00  1.9485E-010     0.00     14.91     9.94
   -                           2      59.648   3.1093E-008     0.00  1.948E-010     0.00      0.00     0.00
"LINE.LV_LINE2" ............   1      31.711   1.653E-008     0.00  1.0479E-010     0.00      7.93     5.29
   -                           2      31.711   1.653E-008     0.00  1.0474E-010     0.00      0.00     0.00
"LINE.SWITCH_CONNECTION" ...   1  2.0601E-010   1.0662E-019     0.00  1.3357E-022     0.00      0.00     0.00
   -                           2  7.5238E-008   3.8954E-017     0.00  2.2558E-020     0.00      0.00     0.00
"LOAD.LOAD1" ...............   1      5.5251     2.7E-009     0.00  3.5941E-010     0.00      0.00     0.00
"LOAD.LOAD2" ...............   1        4.42    2.16E-009     0.00  2.8753E-010     0.00      0.00     0.00
"LOAD.LOAD3" ...............   1      59.648   3.1093E-008     0.00  1.9481E-010     0.00      0.00     0.00
"LOAD.LOAD4" ...............   1      31.711   1.653E-008     0.00  1.0475E-010     0.00      0.00     0.00
